4
Properties=species:S:1:pos:R:3 pbc="F F F"
C        0.61000000       0.00000000       1.00000000
C       -0.59954000       0.00000000       1.00000000
H       -1.66164000       0.10000000       1.00000000
H        1.51069504       0.08298339       1.11359505
4
Properties=species:S:1:pos:R:3 pbc="F F F"
C        0.61000000       0.00000000       1.00000000
C       -0.59954000       0.00000000       1.00000000
H       -1.66164000       0.10000000       1.00000000
H        1.58531961      -0.08210234       0.80775568
4
Properties=species:S:1:pos:R:3 pbc="F F F"
C        0.61000000       0.00000000       1.00000000
C       -0.59954000       0.00000000       1.00000000
H       -1.64025792      -0.02787879       0.97876545
H        1.66164000       0.00000000       1.00000000
4
Properties=species:S:1:pos:R:3 pbc="F F F"
C        0.61000000       0.00000000       1.00000000
C       -0.59954000       0.00000000       1.00000000
H       -1.59666500      -0.10086537       0.77625595
H        1.66164000       0.00000000       1.00000000
4
Properties=species:S:1:pos:R:3 pbc="F F F"
C        0.61000000       0.00000000       1.00000000
C       -0.59954000       0.00000000       1.00000000
H       -1.90149856      -0.04005571       0.99133427
H        1.66164000       0.00000000       1.00000000
4
Properties=species:S:1:pos:R:3 pbc="F F F"
C        0.61000000       0.00000000       1.00000000
C       -0.59954000       0.00000000       1.00000000
H       -1.56177859       0.00361415       0.95593669
H        1.66164000       0.00000000       1.00000000
4
Properties=species:S:1:pos:R:3 pbc="F F F"
C        0.61000000       0.00000000       1.00000000
C       -0.59954000       0.00000000       1.00000000
H       -1.64025792      -0.02787879       0.97876545
H        1.51458341      -0.15604885       0.85727671
4
Properties=species:S:1:pos:R:3 pbc="F F F"
C        0.61000000       0.00000000       1.00000000
C       -0.59954000       0.00000000       1.00000000
H       -1.63150090      -0.06110847       1.00884219
H        1.66164000       0.00000000       1.00000000
4
Properties=species:S:1:pos:R:3 pbc="F F F"
C        0.61000000       0.00000000       1.00000000
C       -0.59954000       0.00000000       1.00000000
H       -1.59631949      -0.13701796       0.93645939
H        1.66164000       0.00000000       1.00000000
4
Properties=species:S:1:pos:R:3 pbc="F F F"
C        0.61000000       0.00000000       1.00000000
C       -0.59954000       0.00000000       1.00000000
H       -1.59631949      -0.13701796       0.93645939
H        1.57517132      -0.02999506       1.05860384
4
Properties=species:S:1:pos:R:3 pbc="F F F"
C        0.61000000       0.00000000       1.00000000
C       -0.59954000       0.00000000       1.00000000
H       -1.60558498      -0.19845180       0.93543628
H        1.66164000       0.00000000       1.00000000
4
Properties=species:S:1:pos:R:3 pbc="F F F"
C        0.61000000       0.00000000       1.00000000
C       -0.59954000       0.00000000       1.00000000
H       -1.51547421      -0.12332575       0.74121342
H        1.66164000       0.00000000       1.00000000
4
Properties=species:S:1:pos:R:3 pbc="F F F"
C        0.61000000       0.00000000       1.00000000
C       -0.59954000       0.00000000       1.00000000
H       -1.60558498      -0.19845180       0.93543628
H        1.58538523      -0.02159290       1.15429078
4
Properties=species:S:1:pos:R:3 pbc="F F F"
C        0.61000000       0.00000000       1.00000000
C       -0.59954000       0.00000000       1.00000000
H       -1.60558498      -0.19845180       0.93543628
H        1.70835514       0.12371515       1.23446847
4
Properties=species:S:1:pos:R:3 pbc="F F F"
C        0.61000000       0.00000000       1.00000000
C       -0.59954000       0.00000000       1.00000000
H       -1.62587572      -0.17023313       0.96676364
H        1.66164000       0.00000000       1.00000000
4
Properties=species:S:1:pos:R:3 pbc="F F F"
C        0.61000000       0.00000000       1.00000000
C       -0.59954000       0.00000000       1.00000000
H       -1.89232373      -0.20627491       0.70755264
H        1.66164000       0.00000000       1.00000000
4
Properties=species:S:1:pos:R:3 pbc="F F F"
C        0.61000000       0.00000000       1.00000000
C       -0.59954000       0.00000000       1.00000000
H       -1.59828504      -0.16879850       0.96928013
H        1.66164000       0.00000000       1.00000000
4
Properties=species:S:1:pos:R:3 pbc="F F F"
C        0.61000000       0.00000000       1.00000000
C       -0.59954000       0.00000000       1.00000000
H       -1.59828504      -0.16879850       0.96928013
H        1.71026865       0.08642339       1.05910146
4
Properties=species:S:1:pos:R:3 pbc="F F F"
C        0.61000000       0.00000000       1.00000000
C       -0.59954000       0.00000000       1.00000000
H       -1.54502535       0.06454312       0.96244758
H        1.71026865       0.08642339       1.05910146
4
Properties=species:S:1:pos:R:3 pbc="F F F"
C        0.61000000       0.00000000       1.00000000
C       -0.59954000       0.00000000       1.00000000
H       -1.43534816      -0.07609541       0.85533274
H        1.71026865       0.08642339       1.05910146
4
Properties=species:S:1:pos:R:3 pbc="F F F"
C        0.61000000       0.00000000       1.00000000
C       -0.59954000       0.00000000       1.00000000
H       -1.42703547      -0.48394337       1.56431076
H        1.71026865       0.08642339       1.05910146
4
Properties=species:S:1:pos:R:3 pbc="F F F"
C        0.61000000       0.00000000       1.00000000
C       -0.59954000       0.00000000       1.00000000
H       -1.64507420      -0.25340385       1.05105680
H        1.71026865       0.08642339       1.05910146
4
Properties=species:S:1:pos:R:3 pbc="F F F"
C        0.61000000       0.00000000       1.00000000
C       -0.59954000       0.00000000       1.00000000
H       -1.61850002      -0.22052590       1.06119550
H        1.71026865       0.08642339       1.05910146
4
Properties=species:S:1:pos:R:3 pbc="F F F"
C        0.61000000       0.00000000       1.00000000
C       -0.59954000       0.00000000       1.00000000
H       -1.61850002      -0.22052590       1.06119550
H        1.85387312      -0.04601089       0.78655479
4
Properties=species:S:1:pos:R:3 pbc="F F F"
C        0.61000000       0.00000000       1.00000000
C       -0.59954000       0.00000000       1.00000000
H       -1.61850002      -0.22052590       1.06119550
H        1.64065802       0.07386024       1.09146355
4
Properties=species:S:1:pos:R:3 pbc="F F F"
C        0.61000000       0.00000000       1.00000000
C       -0.59954000       0.00000000       1.00000000
H       -1.61850002      -0.22052590       1.06119550
H        1.65967793       0.13947044       1.05264804
4
Properties=species:S:1:pos:R:3 pbc="F F F"
C        0.61000000       0.00000000       1.00000000
C       -0.59954000       0.00000000       1.00000000
H       -1.61850002      -0.22052590       1.06119550
H        1.60689422       0.09943808       1.13563029
4
Properties=species:S:1:pos:R:3 pbc="F F F"
C        0.61000000       0.00000000       1.00000000
C       -0.59954000       0.00000000       1.00000000
H       -1.61850002      -0.22052590       1.06119550
H        1.64158207       0.11443138       1.07615413
4
Properties=species:S:1:pos:R:3 pbc="F F F"
C        0.61000000       0.00000000       1.00000000
C       -0.59954000       0.00000000       1.00000000
H       -1.62806442      -0.26634855       1.10621959
H        1.64158207       0.11443138       1.07615413
4
Properties=species:S:1:pos:R:3 pbc="F F F"
C        0.61000000       0.00000000       1.00000000
C       -0.59954000       0.00000000       1.00000000
H       -1.58403850      -0.21574389       0.99290013
H        1.64158207       0.11443138       1.07615413
4
Properties=species:S:1:pos:R:3 pbc="F F F"
C        0.61000000       0.00000000       1.00000000
C       -0.59954000       0.00000000       1.00000000
H       -1.58495242      -0.25223811       1.15039901
H        1.64158207       0.11443138       1.07615413
4
Properties=species:S:1:pos:R:3 pbc="F F F"
C        0.61000000       0.00000000       1.00000000
C       -0.59954000       0.00000000       1.00000000
H       -1.58495242      -0.25223811       1.15039901
H        1.72294472       0.03812928       1.03218272
4
Properties=species:S:1:pos:R:3 pbc="F F F"
C        0.61000000       0.00000000       1.00000000
C       -0.59954000       0.00000000       1.00000000
H       -1.59910579      -0.20023826       1.31645206
H        1.64158207       0.11443138       1.07615413
4
Properties=species:S:1:pos:R:3 pbc="F F F"
C        0.61000000       0.00000000       1.00000000
C       -0.59954000       0.00000000       1.00000000
H       -1.47247404      -0.26734373       1.14983966
H        1.64158207       0.11443138       1.07615413
4
Properties=species:S:1:pos:R:3 pbc="F F F"
C        0.61000000       0.00000000       1.00000000
C       -0.59954000       0.00000000       1.00000000
H       -1.58495242      -0.25223811       1.15039901
H        1.66218058       0.05485541       1.07229906
4
Properties=species:S:1:pos:R:3 pbc="F F F"
C        0.61000000       0.00000000       1.00000000
C       -0.59954000       0.00000000       1.00000000
H       -1.57223933      -0.23074297       1.16233518
H        1.66218058       0.05485541       1.07229906
4
Properties=species:S:1:pos:R:3 pbc="F F F"
C        0.61000000       0.00000000       1.00000000
C       -0.59954000       0.00000000       1.00000000
H       -1.57223933      -0.23074297       1.16233518
H        1.79558238       0.25027999       0.96167479
4
Properties=species:S:1:pos:R:3 pbc="F F F"
C        0.61000000       0.00000000       1.00000000
C       -0.59954000       0.00000000       1.00000000
H       -1.56527687      -0.20766849       1.23441339
H        1.66218058       0.05485541       1.07229906
4
Properties=species:S:1:pos:R:3 pbc="F F F"
C        0.61000000       0.00000000       1.00000000
C       -0.59954000       0.00000000       1.00000000
H       -1.74215045      -0.13047786       1.29399918
H        1.66218058       0.05485541       1.07229906
4
Properties=species:S:1:pos:R:3 pbc="F F F"
C        0.61000000       0.00000000       1.00000000
C       -0.59954000       0.00000000       1.00000000
H       -1.56527687      -0.20766849       1.23441339
H        1.65413174       0.03709254       1.03952261
4
Properties=species:S:1:pos:R:3 pbc="F F F"
C        0.61000000       0.00000000       1.00000000
C       -0.59954000       0.00000000       1.00000000
H       -1.56527687      -0.20766849       1.23441339
H        1.64414820       0.02544129       1.02977382
4
Properties=species:S:1:pos:R:3 pbc="F F F"
C        0.61000000       0.00000000       1.00000000
C       -0.59954000       0.00000000       1.00000000
H       -1.63772595      -0.18462358       1.25493649
H        1.64414820       0.02544129       1.02977382
4
Properties=species:S:1:pos:R:3 pbc="F F F"
C        0.61000000       0.00000000       1.00000000
C       -0.59954000       0.00000000       1.00000000
H       -1.56527687      -0.20766849       1.23441339
H        1.70480551      -0.20268342       0.84570749
4
Properties=species:S:1:pos:R:3 pbc="F F F"
C        0.61000000       0.00000000       1.00000000
C       -0.59954000       0.00000000       1.00000000
H       -1.56527687      -0.20766849       1.23441339
H        1.64237471       0.03620323       1.03317377
4
Properties=species:S:1:pos:R:3 pbc="F F F"
C        0.61000000       0.00000000       1.00000000
C       -0.59954000       0.00000000       1.00000000
H       -1.45781631      -0.24027417       1.33374987
H        1.64237471       0.03620323       1.03317377
4
Properties=species:S:1:pos:R:3 pbc="F F F"
C        0.61000000       0.00000000       1.00000000
C       -0.59954000       0.00000000       1.00000000
H       -1.56527687      -0.20766849       1.23441339
H        1.61370578      -0.03553170       1.03028945
4
Properties=species:S:1:pos:R:3 pbc="F F F"
C        0.61000000       0.00000000       1.00000000
C       -0.59954000       0.00000000       1.00000000
H       -1.50122688      -0.02127845       1.15458806
H        1.61370578      -0.03553170       1.03028945
4
Properties=species:S:1:pos:R:3 pbc="F F F"
C        0.61000000       0.00000000       1.00000000
C       -0.59954000       0.00000000       1.00000000
H       -1.56394626      -0.20705701       1.23682833
H        1.61370578      -0.03553170       1.03028945
4
Properties=species:S:1:pos:R:3 pbc="F F F"
C        0.61000000       0.00000000       1.00000000
C       -0.59954000       0.00000000       1.00000000
H       -1.56394626      -0.20705701       1.23682833
H        1.47969663      -0.06395301       1.15626732
4
Properties=species:S:1:pos:R:3 pbc="F F F"
C        0.61000000       0.00000000       1.00000000
C       -0.59954000       0.00000000       1.00000000
H       -1.58601092      -0.11034932       1.29362590
H        1.61370578      -0.03553170       1.03028945
4
Properties=species:S:1:pos:R:3 pbc="F F F"
C        0.61000000       0.00000000       1.00000000
C       -0.59954000       0.00000000       1.00000000
H       -1.58601092      -0.11034932       1.29362590
H        1.91852519      -0.33867460       0.94157666
4
Properties=species:S:1:pos:R:3 pbc="F F F"
C        0.61000000       0.00000000       1.00000000
C       -0.59954000       0.00000000       1.00000000
H       -1.61072962      -0.08137958       1.01147273
H        1.61370578      -0.03553170       1.03028945
4
Properties=species:S:1:pos:R:3 pbc="F F F"
C        0.61000000       0.00000000       1.00000000
C       -0.59954000       0.00000000       1.00000000
H       -1.63668264      -0.07783273       1.12107885
H        1.61370578      -0.03553170       1.03028945
4
Properties=species:S:1:pos:R:3 pbc="F F F"
C        0.61000000       0.00000000       1.00000000
C       -0.59954000       0.00000000       1.00000000
H       -1.63668264      -0.07783273       1.12107885
H        1.48686812      -0.27747336       0.76636967
4
Properties=species:S:1:pos:R:3 pbc="F F F"
C        0.61000000       0.00000000       1.00000000
C       -0.59954000       0.00000000       1.00000000
H       -1.63668264      -0.07783273       1.12107885
H        1.70761958       0.06467745       1.14716264
4
Properties=species:S:1:pos:R:3 pbc="F F F"
C        0.61000000       0.00000000       1.00000000
C       -0.59954000       0.00000000       1.00000000
H       -1.63668264      -0.07783273       1.12107885
H        1.48073041       0.00617496       1.00485919
4
Properties=species:S:1:pos:R:3 pbc="F F F"
C        0.61000000       0.00000000       1.00000000
C       -0.59954000       0.00000000       1.00000000
H       -1.63668264      -0.07783273       1.12107885
H        1.68154306      -0.06727809       0.94127484
4
Properties=species:S:1:pos:R:3 pbc="F F F"
C        0.61000000       0.00000000       1.00000000
C       -0.59954000       0.00000000       1.00000000
H       -1.62418256      -0.06465368       1.14029628
H        1.61370578      -0.03553170       1.03028945
4
Properties=species:S:1:pos:R:3 pbc="F F F"
C        0.61000000       0.00000000       1.00000000
C       -0.59954000       0.00000000       1.00000000
H       -1.62418256      -0.06465368       1.14029628
H        1.67181149      -0.08463222       0.99257855
4
Properties=species:S:1:pos:R:3 pbc="F F F"
C        0.61000000       0.00000000       1.00000000
C       -0.59954000       0.00000000       1.00000000
H       -1.62369739      -0.06448504       1.13982556
H        1.67181149      -0.08463222       0.99257855
4
Properties=species:S:1:pos:R:3 pbc="F F F"
C        0.61000000       0.00000000       1.00000000
C       -0.59954000       0.00000000       1.00000000
H       -1.62369739      -0.06448504       1.13982556
H        1.84499735      -0.07856747       1.00493964
4
Properties=species:S:1:pos:R:3 pbc="F F F"
C        0.61000000       0.00000000       1.00000000
C       -0.59954000       0.00000000       1.00000000
H       -1.50569362      -0.08063189       1.19465352
H        1.67181149      -0.08463222       0.99257855
4
Properties=species:S:1:pos:R:3 pbc="F F F"
C        0.61000000       0.00000000       1.00000000
C       -0.59954000       0.00000000       1.00000000
H       -1.62369739      -0.06448504       1.13982556
H        1.55768250      -0.01526485       0.97548575
4
Properties=species:S:1:pos:R:3 pbc="F F F"
C        0.61000000       0.00000000       1.00000000
C       -0.59954000       0.00000000       1.00000000
H       -1.62369739      -0.06448504       1.13982556
H        1.61921656       0.10683795       0.90407537
4
Properties=species:S:1:pos:R:3 pbc="F F F"
C        0.61000000       0.00000000       1.00000000
C       -0.59954000       0.00000000       1.00000000
H       -1.62369739      -0.06448504       1.13982556
H        1.59244364       0.07524824       0.92026044
4
Properties=species:S:1:pos:R:3 pbc="F F F"
C        0.61000000       0.00000000       1.00000000
C       -0.59954000       0.00000000       1.00000000
H       -1.62369739      -0.06448504       1.13982556
H        1.67647569       0.15036582       0.94345355
4
Properties=species:S:1:pos:R:3 pbc="F F F"
C        0.61000000       0.00000000       1.00000000
C       -0.59954000       0.00000000       1.00000000
H       -1.62369739      -0.06448504       1.13982556
H        1.62413930       0.11665219       0.88186114
4
Properties=species:S:1:pos:R:3 pbc="F F F"
C        0.61000000       0.00000000       1.00000000
C       -0.59954000       0.00000000       1.00000000
H       -1.62369739      -0.06448504       1.13982556
H        1.50010591      -0.09413633       0.78354491
4
Properties=species:S:1:pos:R:3 pbc="F F F"
C        0.61000000       0.00000000       1.00000000
C       -0.59954000       0.00000000       1.00000000
H       -1.61611599      -0.08076809       1.12377277
H        1.62413930       0.11665219       0.88186114
4
Properties=species:S:1:pos:R:3 pbc="F F F"
C        0.61000000       0.00000000       1.00000000
C       -0.59954000       0.00000000       1.00000000
H       -1.61611599      -0.08076809       1.12377277
H        1.62367648       0.12194649       0.87418423
4
Properties=species:S:1:pos:R:3 pbc="F F F"
C        0.61000000       0.00000000       1.00000000
C       -0.59954000       0.00000000       1.00000000
H       -1.61611599      -0.08076809       1.12377277
H        1.61345670       0.09211113       0.87440282
4
Properties=species:S:1:pos:R:3 pbc="F F F"
C        0.61000000       0.00000000       1.00000000
C       -0.59954000       0.00000000       1.00000000
H       -1.61611599      -0.08076809       1.12377277
H        1.56492118       0.11166864       0.79492996
4
Properties=species:S:1:pos:R:3 pbc="F F F"
C        0.61000000       0.00000000       1.00000000
C       -0.59954000       0.00000000       1.00000000
H       -1.61611599      -0.08076809       1.12377277
H        1.74326533       0.15142944       1.00051572
4
Properties=species:S:1:pos:R:3 pbc="F F F"
C        0.61000000       0.00000000       1.00000000
C       -0.59954000       0.00000000       1.00000000
H       -1.61611599      -0.08076809       1.12377277
H        1.59417743       0.09529835       0.87794556
4
Properties=species:S:1:pos:R:3 pbc="F F F"
C        0.61000000       0.00000000       1.00000000
C       -0.59954000       0.00000000       1.00000000
H       -1.61611599      -0.08076809       1.12377277
H        1.62883624       0.06051282       0.85638976
4
Properties=species:S:1:pos:R:3 pbc="F F F"
C        0.61000000       0.00000000       1.00000000
C       -0.59954000       0.00000000       1.00000000
H       -1.43926427      -0.14669107       0.98912269
H        1.62883624       0.06051282       0.85638976
4
Properties=species:S:1:pos:R:3 pbc="F F F"
C        0.61000000       0.00000000       1.00000000
C       -0.59954000       0.00000000       1.00000000
H       -1.54987574       0.05418097       1.31421840
H        1.62883624       0.06051282       0.85638976
4
Properties=species:S:1:pos:R:3 pbc="F F F"
C        0.61000000       0.00000000       1.00000000
C       -0.59954000       0.00000000       1.00000000
H       -1.61611599      -0.08076809       1.12377277
H        1.62863307       0.05508924       0.84894904
4
Properties=species:S:1:pos:R:3 pbc="F F F"
C        0.61000000       0.00000000       1.00000000
C       -0.59954000       0.00000000       1.00000000
H       -1.61611599      -0.08076809       1.12377277
H        1.63081847       0.19894590       0.65833063
4
Properties=species:S:1:pos:R:3 pbc="F F F"
C        0.61000000       0.00000000       1.00000000
C       -0.59954000       0.00000000       1.00000000
H       -1.61611599      -0.08076809       1.12377277
H        1.60714169      -0.03268602       1.00597682
4
Properties=species:S:1:pos:R:3 pbc="F F F"
C        0.61000000       0.00000000       1.00000000
C       -0.59954000       0.00000000       1.00000000
H       -1.50061041      -0.37482424       1.14666463
H        1.60714169      -0.03268602       1.00597682
4
Properties=species:S:1:pos:R:3 pbc="F F F"
C        0.61000000       0.00000000       1.00000000
C       -0.59954000       0.00000000       1.00000000
H       -1.61724800      -0.08678352       1.19256533
H        1.60714169      -0.03268602       1.00597682
4
Properties=species:S:1:pos:R:3 pbc="F F F"
C        0.61000000       0.00000000       1.00000000
C       -0.59954000       0.00000000       1.00000000
H       -1.61611599      -0.08076809       1.12377277
H        1.53087553       0.02332228       1.34189080
4
Properties=species:S:1:pos:R:3 pbc="F F F"
C        0.61000000       0.00000000       1.00000000
C       -0.59954000       0.00000000       1.00000000
H       -1.61611599      -0.08076809       1.12377277
H        1.38829210       0.07456513       1.41599936
4
Properties=species:S:1:pos:R:3 pbc="F F F"
C        0.61000000       0.00000000       1.00000000
C       -0.59954000       0.00000000       1.00000000
H       -1.74119849      -0.06517595       1.08217541
H        1.53087553       0.02332228       1.34189080
4
Properties=species:S:1:pos:R:3 pbc="F F F"
C        0.61000000       0.00000000       1.00000000
C       -0.59954000       0.00000000       1.00000000
H       -1.69570664      -0.07640292       1.08762107
H        1.53087553       0.02332228       1.34189080
4
Properties=species:S:1:pos:R:3 pbc="F F F"
C        0.61000000       0.00000000       1.00000000
C       -0.59954000       0.00000000       1.00000000
H       -1.63728126      -0.04780796       1.10864513
H        1.53087553       0.02332228       1.34189080
4
Properties=species:S:1:pos:R:3 pbc="F F F"
C        0.61000000       0.00000000       1.00000000
C       -0.59954000       0.00000000       1.00000000
H       -1.63728126      -0.04780796       1.10864513
H        1.72233101      -0.05909626       1.32324029
4
Properties=species:S:1:pos:R:3 pbc="F F F"
C        0.61000000       0.00000000       1.00000000
C       -0.59954000       0.00000000       1.00000000
H       -1.79531064      -0.12873162       0.78636839
H        1.53087553       0.02332228       1.34189080
4
Properties=species:S:1:pos:R:3 pbc="F F F"
C        0.61000000       0.00000000       1.00000000
C       -0.59954000       0.00000000       1.00000000
H       -1.61694830      -0.03049204       1.10489283
H        1.53087553       0.02332228       1.34189080
4
Properties=species:S:1:pos:R:3 pbc="F F F"
C        0.61000000       0.00000000       1.00000000
C       -0.59954000       0.00000000       1.00000000
H       -1.36154967       0.20240614       0.73812806
H        1.53087553       0.02332228       1.34189080
4
Properties=species:S:1:pos:R:3 pbc="F F F"
C        0.61000000       0.00000000       1.00000000
C       -0.59954000       0.00000000       1.00000000
H       -1.61694830      -0.03049204       1.10489283
H        1.56629561       0.06390018       1.30230612
4
Properties=species:S:1:pos:R:3 pbc="F F F"
C        0.61000000       0.00000000       1.00000000
C       -0.59954000       0.00000000       1.00000000
H       -1.61694830      -0.03049204       1.10489283
H        1.54930707      -0.02041692       1.29910450
4
Properties=species:S:1:pos:R:3 pbc="F F F"
C        0.61000000       0.00000000       1.00000000
C       -0.59954000       0.00000000       1.00000000
H       -1.61694830      -0.03049204       1.10489283
H        1.53797739      -0.01710968       1.23816840
4
Properties=species:S:1:pos:R:3 pbc="F F F"
C        0.61000000       0.00000000       1.00000000
C       -0.59954000       0.00000000       1.00000000
H       -1.61694830      -0.03049204       1.10489283
H        1.55470531      -0.06423057       1.20001544
4
Properties=species:S:1:pos:R:3 pbc="F F F"
C        0.61000000       0.00000000       1.00000000
C       -0.59954000       0.00000000       1.00000000
H       -1.61694830      -0.03049204       1.10489283
H        1.61811572       0.07141787       1.15348934
4
Properties=species:S:1:pos:R:3 pbc="F F F"
C        0.61000000       0.00000000       1.00000000
C       -0.59954000       0.00000000       1.00000000
H       -1.61694830      -0.03049204       1.10489283
H        1.62108037       0.07899299       1.16618248
4
Properties=species:S:1:pos:R:3 pbc="F F F"
C        0.61000000       0.00000000       1.00000000
C       -0.59954000       0.00000000       1.00000000
H       -1.61694830      -0.03049204       1.10489283
H        1.63665769      -0.02376205       1.22479187
4
Properties=species:S:1:pos:R:3 pbc="F F F"
C        0.61000000       0.00000000       1.00000000
C       -0.59954000       0.00000000       1.00000000
H       -1.61694830      -0.03049204       1.10489283
H        1.61589844       0.11781886       1.15706112
4
Properties=species:S:1:pos:R:3 pbc="F F F"
C        0.61000000       0.00000000       1.00000000
C       -0.59954000       0.00000000       1.00000000
H       -1.61694830      -0.03049204       1.10489283
H        1.62810950       0.15274446       1.19080631
