4
Properties=species:S:1:pos:R:3 pbc="F F F"
C        0.61000000       0.00000000       1.00000000
C       -0.59954000       0.00000000       1.00000000
H       -1.66164000       0.10000000       1.00000000
H        1.65583519       0.00586297       0.99647058
4
Properties=species:S:1:pos:R:3 pbc="F F F"
C        0.61000000       0.00000000       1.00000000
C       -0.59954000       0.00000000       1.00000000
H       -1.53207166       0.09702667       0.98278206
H        1.65583519       0.00586297       0.99647058
4
Properties=species:S:1:pos:R:3 pbc="F F F"
C        0.61000000       0.00000000       1.00000000
C       -0.59954000       0.00000000       1.00000000
H       -1.61143458      -0.29511074       1.10541633
H        1.65583519       0.00586297       0.99647058
4
Properties=species:S:1:pos:R:3 pbc="F F F"
C        0.61000000       0.00000000       1.00000000
C       -0.59954000       0.00000000       1.00000000
H       -1.75220402       0.13901156       1.11724362
H        1.65583519       0.00586297       0.99647058
4
Properties=species:S:1:pos:R:3 pbc="F F F"
C        0.61000000       0.00000000       1.00000000
C       -0.59954000       0.00000000       1.00000000
H       -1.66164000       0.10000000       1.00000000
H        1.88299636      -0.08327225       0.88446788
4
Properties=species:S:1:pos:R:3 pbc="F F F"
C        0.61000000       0.00000000       1.00000000
C       -0.59954000       0.00000000       1.00000000
H       -1.63093314       0.03982715       0.97415087
H        1.65583519       0.00586297       0.99647058
4
Properties=species:S:1:pos:R:3 pbc="F F F"
C        0.61000000       0.00000000       1.00000000
C       -0.59954000       0.00000000       1.00000000
H       -1.63093314       0.03982715       0.97415087
H        1.70414777       0.08267887       1.15270836
4
Properties=species:S:1:pos:R:3 pbc="F F F"
C        0.61000000       0.00000000       1.00000000
C       -0.59954000       0.00000000       1.00000000
H       -1.62122824       0.04782239       0.98988186
H        1.70414777       0.08267887       1.15270836
4
Properties=species:S:1:pos:R:3 pbc="F F F"
C        0.61000000       0.00000000       1.00000000
C       -0.59954000       0.00000000       1.00000000
H       -1.62122824       0.04782239       0.98988186
H        1.91394228      -0.01718280       0.89713545
4
Properties=species:S:1:pos:R:3 pbc="F F F"
C        0.61000000       0.00000000       1.00000000
C       -0.59954000       0.00000000       1.00000000
H       -1.62122824       0.04782239       0.98988186
H        1.42932768       0.06160218       1.21007860
4
Properties=species:S:1:pos:R:3 pbc="F F F"
C        0.61000000       0.00000000       1.00000000
C       -0.59954000       0.00000000       1.00000000
H       -1.73416074       0.05969354       0.99386918
H        1.70414777       0.08267887       1.15270836
4
Properties=species:S:1:pos:R:3 pbc="F F F"
C        0.61000000       0.00000000       1.00000000
C       -0.59954000       0.00000000       1.00000000
H       -1.57482637       0.07825791       1.11017473
H        1.70414777       0.08267887       1.15270836
4
Properties=species:S:1:pos:R:3 pbc="F F F"
C        0.61000000       0.00000000       1.00000000
C       -0.59954000       0.00000000       1.00000000
H       -1.62122824       0.04782239       0.98988186
H        1.66096628       0.16630961       1.12802850
4
Properties=species:S:1:pos:R:3 pbc="F F F"
C        0.61000000       0.00000000       1.00000000
C       -0.59954000       0.00000000       1.00000000
H       -1.62122824       0.04782239       0.98988186
H        1.67380001       0.27207424       1.24118901
4
Properties=species:S:1:pos:R:3 pbc="F F F"
C        0.61000000       0.00000000       1.00000000
C       -0.59954000       0.00000000       1.00000000
H       -1.62122824       0.04782239       0.98988186
H        1.64422162       0.15343969       1.13626156
4
Properties=species:S:1:pos:R:3 pbc="F F F"
C        0.61000000       0.00000000       1.00000000
C       -0.59954000       0.00000000       1.00000000
H       -1.63045943       0.13028048       1.04152167
H        1.64422162       0.15343969       1.13626156
4
Properties=species:S:1:pos:R:3 pbc="F F F"
C        0.61000000       0.00000000       1.00000000
C       -0.59954000       0.00000000       1.00000000
H       -1.63045943       0.13028048       1.04152167
H        1.64500841       0.15559070       1.13552181
4
Properties=species:S:1:pos:R:3 pbc="F F F"
C        0.61000000       0.00000000       1.00000000
C       -0.59954000       0.00000000       1.00000000
H       -1.63048146       0.41001397       1.04554601
H        1.64500841       0.15559070       1.13552181
4
Properties=species:S:1:pos:R:3 pbc="F F F"
C        0.61000000       0.00000000       1.00000000
C       -0.59954000       0.00000000       1.00000000
H       -1.32549348      -0.23587054       1.16502533
H        1.64500841       0.15559070       1.13552181
4
Properties=species:S:1:pos:R:3 pbc="F F F"
C        0.61000000       0.00000000       1.00000000
C       -0.59954000       0.00000000       1.00000000
H       -1.56022586       0.19142135       0.97258676
H        1.64500841       0.15559070       1.13552181
4
Properties=species:S:1:pos:R:3 pbc="F F F"
C        0.61000000       0.00000000       1.00000000
C       -0.59954000       0.00000000       1.00000000
H       -1.63045943       0.13028048       1.04152167
H        1.47102486       0.05468280       1.15654096
4
Properties=species:S:1:pos:R:3 pbc="F F F"
C        0.61000000       0.00000000       1.00000000
C       -0.59954000       0.00000000       1.00000000
H       -1.61326167       0.27193545       1.03102980
H        1.64500841       0.15559070       1.13552181
4
Properties=species:S:1:pos:R:3 pbc="F F F"
C        0.61000000       0.00000000       1.00000000
C       -0.59954000       0.00000000       1.00000000
H       -1.61326167       0.27193545       1.03102980
H        1.67922962       0.17345526       1.13689525
4
Properties=species:S:1:pos:R:3 pbc="F F F"
C        0.61000000       0.00000000       1.00000000
C       -0.59954000       0.00000000       1.00000000
H       -1.61326167       0.27193545       1.03102980
H        1.43799135       0.05731050       1.24266427
4
Properties=species:S:1:pos:R:3 pbc="F F F"
C        0.61000000       0.00000000       1.00000000
C       -0.59954000       0.00000000       1.00000000
H       -1.62164117       0.19591952       0.99327291
H        1.64500841       0.15559070       1.13552181
4
Properties=species:S:1:pos:R:3 pbc="F F F"
C        0.61000000       0.00000000       1.00000000
C       -0.59954000       0.00000000       1.00000000
H       -1.62164117       0.19591952       0.99327291
H        1.68316841       0.11232322       1.14267226
4
Properties=species:S:1:pos:R:3 pbc="F F F"
C        0.61000000       0.00000000       1.00000000
C       -0.59954000       0.00000000       1.00000000
H       -1.55023373       0.17467030       0.73849218
H        1.68316841       0.11232322       1.14267226
4
Properties=species:S:1:pos:R:3 pbc="F F F"
C        0.61000000       0.00000000       1.00000000
C       -0.59954000       0.00000000       1.00000000
H       -1.46828135       0.27407482       0.80646042
H        1.68316841       0.11232322       1.14267226
4
Properties=species:S:1:pos:R:3 pbc="F F F"
C        0.61000000       0.00000000       1.00000000
C       -0.59954000       0.00000000       1.00000000
H       -1.48441027       0.17834633       0.97150717
H        1.68316841       0.11232322       1.14267226
4
Properties=species:S:1:pos:R:3 pbc="F F F"
C        0.61000000       0.00000000       1.00000000
C       -0.59954000       0.00000000       1.00000000
H       -1.49980645       0.24859021       0.87333757
H        1.68316841       0.11232322       1.14267226
4
Properties=species:S:1:pos:R:3 pbc="F F F"
C        0.61000000       0.00000000       1.00000000
C       -0.59954000       0.00000000       1.00000000
H       -1.73857120       0.17618137       1.04216837
H        1.68316841       0.11232322       1.14267226
4
Properties=species:S:1:pos:R:3 pbc="F F F"
C        0.61000000       0.00000000       1.00000000
C       -0.59954000       0.00000000       1.00000000
H       -1.64823513       0.21901979       0.95253359
H        1.68316841       0.11232322       1.14267226
4
Properties=species:S:1:pos:R:3 pbc="F F F"
C        0.61000000       0.00000000       1.00000000
C       -0.59954000       0.00000000       1.00000000
H       -1.64359620       0.05296184       1.00191228
H        1.68316841       0.11232322       1.14267226
4
Properties=species:S:1:pos:R:3 pbc="F F F"
C        0.61000000       0.00000000       1.00000000
C       -0.59954000       0.00000000       1.00000000
H       -1.64359620       0.05296184       1.00191228
H        1.68182992       0.12262216       1.13002310
4
Properties=species:S:1:pos:R:3 pbc="F F F"
C        0.61000000       0.00000000       1.00000000
C       -0.59954000       0.00000000       1.00000000
H       -1.64359620       0.05296184       1.00191228
H        1.80830305       0.15388996       1.20917215
4
Properties=species:S:1:pos:R:3 pbc="F F F"
C        0.61000000       0.00000000       1.00000000
C       -0.59954000       0.00000000       1.00000000
H       -1.64359620       0.05296184       1.00191228
H        1.69683883       0.11962918       1.11769639
4
Properties=species:S:1:pos:R:3 pbc="F F F"
C        0.61000000       0.00000000       1.00000000
C       -0.59954000       0.00000000       1.00000000
H       -1.64359620       0.05296184       1.00191228
H        1.87442888       0.20229125       0.75763180
4
Properties=species:S:1:pos:R:3 pbc="F F F"
C        0.61000000       0.00000000       1.00000000
C       -0.59954000       0.00000000       1.00000000
H       -1.72108979       0.02772703       1.05187897
H        1.69683883       0.11962918       1.11769639
4
Properties=species:S:1:pos:R:3 pbc="F F F"
C        0.61000000       0.00000000       1.00000000
C       -0.59954000       0.00000000       1.00000000
H       -1.59244963       0.06082232       0.95141210
H        1.69683883       0.11962918       1.11769639
4
Properties=species:S:1:pos:R:3 pbc="F F F"
C        0.61000000       0.00000000       1.00000000
C       -0.59954000       0.00000000       1.00000000
H       -1.59244963       0.06082232       0.95141210
H        1.68736446       0.16446109       1.14324272
4
Properties=species:S:1:pos:R:3 pbc="F F F"
C        0.61000000       0.00000000       1.00000000
C       -0.59954000       0.00000000       1.00000000
H       -1.59244963       0.06082232       0.95141210
H        1.72337004       0.20203061       1.15785464
4
Properties=species:S:1:pos:R:3 pbc="F F F"
C        0.61000000       0.00000000       1.00000000
C       -0.59954000       0.00000000       1.00000000
H       -1.59244963       0.06082232       0.95141210
H        1.83536173       0.14195372       1.12928924
4
Properties=species:S:1:pos:R:3 pbc="F F F"
C        0.61000000       0.00000000       1.00000000
C       -0.59954000       0.00000000       1.00000000
H       -1.54995260       0.03117717       1.16606779
H        1.68736446       0.16446109       1.14324272
4
Properties=species:S:1:pos:R:3 pbc="F F F"
C        0.61000000       0.00000000       1.00000000
C       -0.59954000       0.00000000       1.00000000
H       -1.59244963       0.06082232       0.95141210
H        1.70693152       0.27029417       0.97097717
4
Properties=species:S:1:pos:R:3 pbc="F F F"
C        0.61000000       0.00000000       1.00000000
C       -0.59954000       0.00000000       1.00000000
H       -1.58323837      -0.01771761       0.95797661
H        1.68736446       0.16446109       1.14324272
4
Properties=species:S:1:pos:R:3 pbc="F F F"
C        0.61000000       0.00000000       1.00000000
C       -0.59954000       0.00000000       1.00000000
H       -1.59954675      -0.02574097       0.95891097
H        1.68736446       0.16446109       1.14324272
4
Properties=species:S:1:pos:R:3 pbc="F F F"
C        0.61000000       0.00000000       1.00000000
C       -0.59954000       0.00000000       1.00000000
H       -1.59954675      -0.02574097       0.95891097
H        1.72785926       0.15780713       1.14761874
4
Properties=species:S:1:pos:R:3 pbc="F F F"
C        0.61000000       0.00000000       1.00000000
C       -0.59954000       0.00000000       1.00000000
H       -1.59954675      -0.02574097       0.95891097
H        1.66198477       0.20455881       1.07936155
4
Properties=species:S:1:pos:R:3 pbc="F F F"
C        0.61000000       0.00000000       1.00000000
C       -0.59954000       0.00000000       1.00000000
H       -1.53901134      -0.21129281       0.97889510
H        1.66198477       0.20455881       1.07936155
4
Properties=species:S:1:pos:R:3 pbc="F F F"
C        0.61000000       0.00000000       1.00000000
C       -0.59954000       0.00000000       1.00000000
H       -1.61763115      -0.02589540       1.00661535
H        1.66198477       0.20455881       1.07936155
4
Properties=species:S:1:pos:R:3 pbc="F F F"
C        0.61000000       0.00000000       1.00000000
C       -0.59954000       0.00000000       1.00000000
H       -1.61763115      -0.02589540       1.00661535
H        1.59332171       0.31841476       1.14642155
4
Properties=species:S:1:pos:R:3 pbc="F F F"
C        0.61000000       0.00000000       1.00000000
C       -0.59954000       0.00000000       1.00000000
H       -1.57135102      -0.06637403       1.02991129
H        1.66198477       0.20455881       1.07936155
4
Properties=species:S:1:pos:R:3 pbc="F F F"
C        0.61000000       0.00000000       1.00000000
C       -0.59954000       0.00000000       1.00000000
H       -1.67330479      -0.04696570       0.93700180
H        1.66198477       0.20455881       1.07936155
4
Properties=species:S:1:pos:R:3 pbc="F F F"
C        0.61000000       0.00000000       1.00000000
C       -0.59954000       0.00000000       1.00000000
H       -1.69163431       0.01802652       0.89756691
H        1.66198477       0.20455881       1.07936155
4
Properties=species:S:1:pos:R:3 pbc="F F F"
C        0.61000000       0.00000000       1.00000000
C       -0.59954000       0.00000000       1.00000000
H       -1.69163431       0.01802652       0.89756691
H        1.57072769       0.38311614       0.99426711
4
Properties=species:S:1:pos:R:3 pbc="F F F"
C        0.61000000       0.00000000       1.00000000
C       -0.59954000       0.00000000       1.00000000
H       -1.69163431       0.01802652       0.89756691
H        1.61883638      -0.05950033       0.95013506
4
Properties=species:S:1:pos:R:3 pbc="F F F"
C        0.61000000       0.00000000       1.00000000
C       -0.59954000       0.00000000       1.00000000
H       -1.68556617       0.04900786       0.85514171
H        1.61883638      -0.05950033       0.95013506
4
Properties=species:S:1:pos:R:3 pbc="F F F"
C        0.61000000       0.00000000       1.00000000
C       -0.59954000       0.00000000       1.00000000
H       -1.75103782       0.13626391       0.90620636
H        1.61883638      -0.05950033       0.95013506
4
Properties=species:S:1:pos:R:3 pbc="F F F"
C        0.61000000       0.00000000       1.00000000
C       -0.59954000       0.00000000       1.00000000
H       -1.76876304       0.08698663       0.89697011
H        1.61883638      -0.05950033       0.95013506
4
Properties=species:S:1:pos:R:3 pbc="F F F"
C        0.61000000       0.00000000       1.00000000
C       -0.59954000       0.00000000       1.00000000
H       -1.96663778      -0.10780824       0.90832730
H        1.61883638      -0.05950033       0.95013506
4
Properties=species:S:1:pos:R:3 pbc="F F F"
C        0.61000000       0.00000000       1.00000000
C       -0.59954000       0.00000000       1.00000000
H       -1.77064161       0.10094460       0.90317373
H        1.61883638      -0.05950033       0.95013506
4
Properties=species:S:1:pos:R:3 pbc="F F F"
C        0.61000000       0.00000000       1.00000000
C       -0.59954000       0.00000000       1.00000000
H       -1.75832920       0.10103318       0.90664813
H        1.61883638      -0.05950033       0.95013506
4
Properties=species:S:1:pos:R:3 pbc="F F F"
C        0.61000000       0.00000000       1.00000000
C       -0.59954000       0.00000000       1.00000000
H       -1.80868284       0.03491765       0.91987681
H        1.61883638      -0.05950033       0.95013506
4
Properties=species:S:1:pos:R:3 pbc="F F F"
C        0.61000000       0.00000000       1.00000000
C       -0.59954000       0.00000000       1.00000000
H       -1.75832920       0.10103318       0.90664813
H        1.65040726       0.25658547       1.06919364
4
Properties=species:S:1:pos:R:3 pbc="F F F"
C        0.61000000       0.00000000       1.00000000
C       -0.59954000       0.00000000       1.00000000
H       -1.56861792       0.07485442       0.76321397
H        1.65040726       0.25658547       1.06919364
4
Properties=species:S:1:pos:R:3 pbc="F F F"
C        0.61000000       0.00000000       1.00000000
C       -0.59954000       0.00000000       1.00000000
H       -1.56508516       0.12909568       0.80655777
H        1.65040726       0.25658547       1.06919364
4
Properties=species:S:1:pos:R:3 pbc="F F F"
C        0.61000000       0.00000000       1.00000000
C       -0.59954000       0.00000000       1.00000000
H       -1.68127143       0.08771335       0.80834741
H        1.65040726       0.25658547       1.06919364
4
Properties=species:S:1:pos:R:3 pbc="F F F"
C        0.61000000       0.00000000       1.00000000
C       -0.59954000       0.00000000       1.00000000
H       -1.71606549       0.11488665       0.78243898
H        1.65040726       0.25658547       1.06919364
4
Properties=species:S:1:pos:R:3 pbc="F F F"
C        0.61000000       0.00000000       1.00000000
C       -0.59954000       0.00000000       1.00000000
H       -1.68016519       0.07922067       0.80152432
H        1.65040726       0.25658547       1.06919364
4
Properties=species:S:1:pos:R:3 pbc="F F F"
C        0.61000000       0.00000000       1.00000000
C       -0.59954000       0.00000000       1.00000000
H       -1.68016519       0.07922067       0.80152432
H        1.65841083       0.26472602       1.06986990
4
Properties=species:S:1:pos:R:3 pbc="F F F"
C        0.61000000       0.00000000       1.00000000
C       -0.59954000       0.00000000       1.00000000
H       -1.68016519       0.07922067       0.80152432
H        1.47705319       0.15393712       1.15678836
4
Properties=species:S:1:pos:R:3 pbc="F F F"
C        0.61000000       0.00000000       1.00000000
C       -0.59954000       0.00000000       1.00000000
H       -1.68016519       0.07922067       0.80152432
H        1.68972717       0.04012511       1.03390227
4
Properties=species:S:1:pos:R:3 pbc="F F F"
C        0.61000000       0.00000000       1.00000000
C       -0.59954000       0.00000000       1.00000000
H       -1.68016519       0.07922067       0.80152432
H        1.71080954       0.16755894       1.07081139
4
Properties=species:S:1:pos:R:3 pbc="F F F"
C        0.61000000       0.00000000       1.00000000
C       -0.59954000       0.00000000       1.00000000
H       -1.87304245       0.09179678       0.84581144
H        1.68972717       0.04012511       1.03390227
4
Properties=species:S:1:pos:R:3 pbc="F F F"
C        0.61000000       0.00000000       1.00000000
C       -0.59954000       0.00000000       1.00000000
H       -1.70791032       0.09460133       0.75935991
H        1.68972717       0.04012511       1.03390227
4
Properties=species:S:1:pos:R:3 pbc="F F F"
C        0.61000000       0.00000000       1.00000000
C       -0.59954000       0.00000000       1.00000000
H       -1.72146227       0.03364544       0.78056968
H        1.68972717       0.04012511       1.03390227
4
Properties=species:S:1:pos:R:3 pbc="F F F"
C        0.61000000       0.00000000       1.00000000
C       -0.59954000       0.00000000       1.00000000
H       -1.70822722       0.01766021       0.78822193
H        1.68972717       0.04012511       1.03390227
4
Properties=species:S:1:pos:R:3 pbc="F F F"
C        0.61000000       0.00000000       1.00000000
C       -0.59954000       0.00000000       1.00000000
H       -1.92069827      -0.05873608       0.84580638
H        1.68972717       0.04012511       1.03390227
4
Properties=species:S:1:pos:R:3 pbc="F F F"
C        0.61000000       0.00000000       1.00000000
C       -0.59954000       0.00000000       1.00000000
H       -1.70822722       0.01766021       0.78822193
H        1.54171074       0.11543678       0.95637096
4
Properties=species:S:1:pos:R:3 pbc="F F F"
C        0.61000000       0.00000000       1.00000000
C       -0.59954000       0.00000000       1.00000000
H       -1.81992583      -0.02300222       0.67472584
H        1.54171074       0.11543678       0.95637096
4
Properties=species:S:1:pos:R:3 pbc="F F F"
C        0.61000000       0.00000000       1.00000000
C       -0.59954000       0.00000000       1.00000000
H       -1.70822722       0.01766021       0.78822193
H        1.26560003       0.31151952       0.93052544
4
Properties=species:S:1:pos:R:3 pbc="F F F"
C        0.61000000       0.00000000       1.00000000
C       -0.59954000       0.00000000       1.00000000
H       -1.70822722       0.01766021       0.78822193
H        1.55765798       0.07843115       0.93342537
4
Properties=species:S:1:pos:R:3 pbc="F F F"
C        0.61000000       0.00000000       1.00000000
C       -0.59954000       0.00000000       1.00000000
H       -1.70822722       0.01766021       0.78822193
H        1.57410405       0.09494484       0.94944003
4
Properties=species:S:1:pos:R:3 pbc="F F F"
C        0.61000000       0.00000000       1.00000000
C       -0.59954000       0.00000000       1.00000000
H       -1.70822722       0.01766021       0.78822193
H        1.57714437       0.09319064       0.94277417
4
Properties=species:S:1:pos:R:3 pbc="F F F"
C        0.61000000       0.00000000       1.00000000
C       -0.59954000       0.00000000       1.00000000
H       -1.68938648       0.09904734       0.83235761
H        1.57714437       0.09319064       0.94277417
4
Properties=species:S:1:pos:R:3 pbc="F F F"
C        0.61000000       0.00000000       1.00000000
C       -0.59954000       0.00000000       1.00000000
H       -1.68938648       0.09904734       0.83235761
H        1.58298995       0.14562260       0.92555783
4
Properties=species:S:1:pos:R:3 pbc="F F F"
C        0.61000000       0.00000000       1.00000000
C       -0.59954000       0.00000000       1.00000000
H       -1.72808224       0.09724498       0.81608229
H        1.58298995       0.14562260       0.92555783
4
Properties=species:S:1:pos:R:3 pbc="F F F"
C        0.61000000       0.00000000       1.00000000
C       -0.59954000       0.00000000       1.00000000
H       -1.66919065       0.26282834       0.86950991
H        1.58298995       0.14562260       0.92555783
4
Properties=species:S:1:pos:R:3 pbc="F F F"
C        0.61000000       0.00000000       1.00000000
C       -0.59954000       0.00000000       1.00000000
H       -1.66919065       0.26282834       0.86950991
H        1.75745149       0.15358425       0.94945044
4
Properties=species:S:1:pos:R:3 pbc="F F F"
C        0.61000000       0.00000000       1.00000000
C       -0.59954000       0.00000000       1.00000000
H       -1.47409753       0.34398614       0.76512412
H        1.58298995       0.14562260       0.92555783
4
Properties=species:S:1:pos:R:3 pbc="F F F"
C        0.61000000       0.00000000       1.00000000
C       -0.59954000       0.00000000       1.00000000
H       -1.66919065       0.26282834       0.86950991
H        1.51624672      -0.00081327       0.82132721
4
Properties=species:S:1:pos:R:3 pbc="F F F"
C        0.61000000       0.00000000       1.00000000
C       -0.59954000       0.00000000       1.00000000
H       -1.67099055       0.26207702       0.88191746
H        1.51624672      -0.00081327       0.82132721
4
Properties=species:S:1:pos:R:3 pbc="F F F"
C        0.61000000       0.00000000       1.00000000
C       -0.59954000       0.00000000       1.00000000
H       -1.65060205       0.25913235       0.89842141
H        1.51624672      -0.00081327       0.82132721
4
Properties=species:S:1:pos:R:3 pbc="F F F"
C        0.61000000       0.00000000       1.00000000
C       -0.59954000       0.00000000       1.00000000
H       -1.65060205       0.25913235       0.89842141
H        1.52021241       0.11175542       0.92955317
4
Properties=species:S:1:pos:R:3 pbc="F F F"
C        0.61000000       0.00000000       1.00000000
C       -0.59954000       0.00000000       1.00000000
H       -1.65060205       0.25913235       0.89842141
H        1.39551165       0.07387019       0.99523032
4
Properties=species:S:1:pos:R:3 pbc="F F F"
C        0.61000000       0.00000000       1.00000000
C       -0.59954000       0.00000000       1.00000000
H       -1.65060205       0.25913235       0.89842141
H        1.57725575       0.45155930       0.87675523
4
Properties=species:S:1:pos:R:3 pbc="F F F"
C        0.61000000       0.00000000       1.00000000
C       -0.59954000       0.00000000       1.00000000
H       -1.72189162       0.22669023       0.92216513
H        1.57725575       0.45155930       0.87675523
4
Properties=species:S:1:pos:R:3 pbc="F F F"
C        0.61000000       0.00000000       1.00000000
C       -0.59954000       0.00000000       1.00000000
H       -1.54726448       0.24031306       0.81390150
H        1.57725575       0.45155930       0.87675523
4
Properties=species:S:1:pos:R:3 pbc="F F F"
C        0.61000000       0.00000000       1.00000000
C       -0.59954000       0.00000000       1.00000000
H       -1.65060205       0.25913235       0.89842141
H        1.82178180       0.44255276       0.71898374
4
Properties=species:S:1:pos:R:3 pbc="F F F"
C        0.61000000       0.00000000       1.00000000
C       -0.59954000       0.00000000       1.00000000
H       -1.66025380       0.27948183       0.95356306
H        1.57725575       0.45155930       0.87675523
