4
Properties=species:S:1:pos:R:3 pbc="F F F"
C        0.61000000       0.00000000       1.00000000
C       -0.59954000       0.00000000       1.00000000
H       -1.66164000       0.10000000       1.00000000
H        1.66625267      -0.02231398       0.97930512
4
Properties=species:S:1:pos:R:3 pbc="F F F"
C        0.61000000       0.00000000       1.00000000
C       -0.59954000       0.00000000       1.00000000
H       -1.66164000       0.10000000       1.00000000
H        1.65558886      -0.01059572       0.99967178
4
Properties=species:S:1:pos:R:3 pbc="F F F"
C        0.61000000       0.00000000       1.00000000
C       -0.59954000       0.00000000       1.00000000
H       -1.66164000       0.10000000       1.00000000
H        1.78052113      -0.02224822       1.06859329
4
Properties=species:S:1:pos:R:3 pbc="F F F"
C        0.61000000       0.00000000       1.00000000
C       -0.59954000       0.00000000       1.00000000
H       -1.56940875       0.14910289       0.98638477
H        1.65558886      -0.01059572       0.99967178
4
Properties=species:S:1:pos:R:3 pbc="F F F"
C        0.61000000       0.00000000       1.00000000
C       -0.59954000       0.00000000       1.00000000
H       -1.71204520       0.14763966       1.03433543
H        1.65558886      -0.01059572       0.99967178
4
Properties=species:S:1:pos:R:3 pbc="F F F"
C        0.61000000       0.00000000       1.00000000
C       -0.59954000       0.00000000       1.00000000
H       -1.66164000       0.10000000       1.00000000
H        1.65810367      -0.00818449       1.00084030
4
Properties=species:S:1:pos:R:3 pbc="F F F"
C        0.61000000       0.00000000       1.00000000
C       -0.59954000       0.00000000       1.00000000
H       -1.66365369       0.12407957       1.02014351
H        1.65810367      -0.00818449       1.00084030
4
Properties=species:S:1:pos:R:3 pbc="F F F"
C        0.61000000       0.00000000       1.00000000
C       -0.59954000       0.00000000       1.00000000
H       -1.66365369       0.12407957       1.02014351
H        1.70302525       0.00991695       0.99434632
4
Properties=species:S:1:pos:R:3 pbc="F F F"
C        0.61000000       0.00000000       1.00000000
C       -0.59954000       0.00000000       1.00000000
H       -1.64613553       0.10613109       1.03470748
H        1.70302525       0.00991695       0.99434632
4
Properties=species:S:1:pos:R:3 pbc="F F F"
C        0.61000000       0.00000000       1.00000000
C       -0.59954000       0.00000000       1.00000000
H       -1.65522798       0.06549519       1.09344257
H        1.70302525       0.00991695       0.99434632
4
Properties=species:S:1:pos:R:3 pbc="F F F"
C        0.61000000       0.00000000       1.00000000
C       -0.59954000       0.00000000       1.00000000
H       -1.65266953       0.06774142       1.09570845
H        1.70302525       0.00991695       0.99434632
4
Properties=species:S:1:pos:R:3 pbc="F F F"
C        0.61000000       0.00000000       1.00000000
C       -0.59954000       0.00000000       1.00000000
H       -1.64488008       0.07228543       1.08517264
H        1.70302525       0.00991695       0.99434632
4
Properties=species:S:1:pos:R:3 pbc="F F F"
C        0.61000000       0.00000000       1.00000000
C       -0.59954000       0.00000000       1.00000000
H       -1.64488008       0.07228543       1.08517264
H        1.70523732      -0.00059127       0.98780054
4
Properties=species:S:1:pos:R:3 pbc="F F F"
C        0.61000000       0.00000000       1.00000000
C       -0.59954000       0.00000000       1.00000000
H       -1.60919391       0.05425233       1.07771401
H        1.70523732      -0.00059127       0.98780054
4
Properties=species:S:1:pos:R:3 pbc="F F F"
C        0.61000000       0.00000000       1.00000000
C       -0.59954000       0.00000000       1.00000000
H       -1.60919391       0.05425233       1.07771401
H        1.71722080       0.00982441       0.96471080
4
Properties=species:S:1:pos:R:3 pbc="F F F"
C        0.61000000       0.00000000       1.00000000
C       -0.59954000       0.00000000       1.00000000
H       -1.67517197       0.09108929       1.03515877
H        1.71722080       0.00982441       0.96471080
4
Properties=species:S:1:pos:R:3 pbc="F F F"
C        0.61000000       0.00000000       1.00000000
C       -0.59954000       0.00000000       1.00000000
H       -1.67517197       0.09108929       1.03515877
H        1.74393540       0.02080028       1.05433461
4
Properties=species:S:1:pos:R:3 pbc="F F F"
C        0.61000000       0.00000000       1.00000000
C       -0.59954000       0.00000000       1.00000000
H       -1.69818149       0.07998183       1.06829224
H        1.74393540       0.02080028       1.05433461
4
Properties=species:S:1:pos:R:3 pbc="F F F"
C        0.61000000       0.00000000       1.00000000
C       -0.59954000       0.00000000       1.00000000
H       -1.69818149       0.07998183       1.06829224
H        1.74338269       0.02117436       1.05509058
4
Properties=species:S:1:pos:R:3 pbc="F F F"
C        0.61000000       0.00000000       1.00000000
C       -0.59954000       0.00000000       1.00000000
H       -1.69818149       0.07998183       1.06829224
H        1.71950567       0.00652334       1.04522635
4
Properties=species:S:1:pos:R:3 pbc="F F F"
C        0.61000000       0.00000000       1.00000000
C       -0.59954000       0.00000000       1.00000000
H       -1.69818149       0.07998183       1.06829224
H        1.71883466       0.02055786       1.05732019
4
Properties=species:S:1:pos:R:3 pbc="F F F"
C        0.61000000       0.00000000       1.00000000
C       -0.59954000       0.00000000       1.00000000
H       -1.72525851       0.10059013       1.03051119
H        1.71883466       0.02055786       1.05732019
4
Properties=species:S:1:pos:R:3 pbc="F F F"
C        0.61000000       0.00000000       1.00000000
C       -0.59954000       0.00000000       1.00000000
H       -1.79390127       0.09497936       1.01083223
H        1.71883466       0.02055786       1.05732019
4
Properties=species:S:1:pos:R:3 pbc="F F F"
C        0.61000000       0.00000000       1.00000000
C       -0.59954000       0.00000000       1.00000000
H       -1.69818149       0.07998183       1.06829224
H        1.71169231       0.02498062       0.98022582
4
Properties=species:S:1:pos:R:3 pbc="F F F"
C        0.61000000       0.00000000       1.00000000
C       -0.59954000       0.00000000       1.00000000
H       -1.69818149       0.07998183       1.06829224
H        1.70183241       0.01889581       0.97438996
4
Properties=species:S:1:pos:R:3 pbc="F F F"
C        0.61000000       0.00000000       1.00000000
C       -0.59954000       0.00000000       1.00000000
H       -1.69818149       0.07998183       1.06829224
H        1.64257222      -0.01713879       0.98534323
4
Properties=species:S:1:pos:R:3 pbc="F F F"
C        0.61000000       0.00000000       1.00000000
C       -0.59954000       0.00000000       1.00000000
H       -1.69818149       0.07998183       1.06829224
H        1.59829054       0.02629678       0.94876665
4
Properties=species:S:1:pos:R:3 pbc="F F F"
C        0.61000000       0.00000000       1.00000000
C       -0.59954000       0.00000000       1.00000000
H       -1.68765355       0.06912988       1.06588108
H        1.64257222      -0.01713879       0.98534323
4
Properties=species:S:1:pos:R:3 pbc="F F F"
C        0.61000000       0.00000000       1.00000000
C       -0.59954000       0.00000000       1.00000000
H       -1.68765355       0.06912988       1.06588108
H        1.69727349       0.04998354       1.01962459
4
Properties=species:S:1:pos:R:3 pbc="F F F"
C        0.61000000       0.00000000       1.00000000
C       -0.59954000       0.00000000       1.00000000
H       -1.68062353       0.07563707       1.07264053
H        1.69727349       0.04998354       1.01962459
4
Properties=species:S:1:pos:R:3 pbc="F F F"
C        0.61000000       0.00000000       1.00000000
C       -0.59954000       0.00000000       1.00000000
H       -1.69565656       0.06294771       1.05950656
H        1.69727349       0.04998354       1.01962459
4
Properties=species:S:1:pos:R:3 pbc="F F F"
C        0.61000000       0.00000000       1.00000000
C       -0.59954000       0.00000000       1.00000000
H       -1.69565656       0.06294771       1.05950656
H        1.70315630       0.04023929       1.01622436
4
Properties=species:S:1:pos:R:3 pbc="F F F"
C        0.61000000       0.00000000       1.00000000
C       -0.59954000       0.00000000       1.00000000
H       -1.69565656       0.06294771       1.05950656
H        1.70280077       0.04508423       1.02193965
4
Properties=species:S:1:pos:R:3 pbc="F F F"
C        0.61000000       0.00000000       1.00000000
C       -0.59954000       0.00000000       1.00000000
H       -1.66959057       0.08440025       1.02755154
H        1.70280077       0.04508423       1.02193965
4
Properties=species:S:1:pos:R:3 pbc="F F F"
C        0.61000000       0.00000000       1.00000000
C       -0.59954000       0.00000000       1.00000000
H       -1.67161221       0.08535981       1.02947138
H        1.70280077       0.04508423       1.02193965
4
Properties=species:S:1:pos:R:3 pbc="F F F"
C        0.61000000       0.00000000       1.00000000
C       -0.59954000       0.00000000       1.00000000
H       -1.67161221       0.08535981       1.02947138
H        1.67379317       0.03943512       1.06076209
4
Properties=species:S:1:pos:R:3 pbc="F F F"
C        0.61000000       0.00000000       1.00000000
C       -0.59954000       0.00000000       1.00000000
H       -1.65936369       0.09447955       1.02202995
H        1.67379317       0.03943512       1.06076209
4
Properties=species:S:1:pos:R:3 pbc="F F F"
C        0.61000000       0.00000000       1.00000000
C       -0.59954000       0.00000000       1.00000000
H       -1.65936369       0.09447955       1.02202995
H        1.65452329       0.02821402       1.06991877
4
Properties=species:S:1:pos:R:3 pbc="F F F"
C        0.61000000       0.00000000       1.00000000
C       -0.59954000       0.00000000       1.00000000
H       -1.61730489       0.10246965       0.96563472
H        1.65452329       0.02821402       1.06991877
4
Properties=species:S:1:pos:R:3 pbc="F F F"
C        0.61000000       0.00000000       1.00000000
C       -0.59954000       0.00000000       1.00000000
H       -1.65936369       0.09447955       1.02202995
H        1.64888541       0.04978739       1.05926599
4
Properties=species:S:1:pos:R:3 pbc="F F F"
C        0.61000000       0.00000000       1.00000000
C       -0.59954000       0.00000000       1.00000000
H       -1.65936369       0.09447955       1.02202995
H        1.66751058       0.02553862       1.06393727
4
Properties=species:S:1:pos:R:3 pbc="F F F"
C        0.61000000       0.00000000       1.00000000
C       -0.59954000       0.00000000       1.00000000
H       -1.66626289       0.14506065       1.02863908
H        1.66751058       0.02553862       1.06393727
4
Properties=species:S:1:pos:R:3 pbc="F F F"
C        0.61000000       0.00000000       1.00000000
C       -0.59954000       0.00000000       1.00000000
H       -1.65936369       0.09447955       1.02202995
H        1.60927662       0.02815036       1.05967140
4
Properties=species:S:1:pos:R:3 pbc="F F F"
C        0.61000000       0.00000000       1.00000000
C       -0.59954000       0.00000000       1.00000000
H       -1.67212250       0.10906603       1.02730086
H        1.66751058       0.02553862       1.06393727
4
Properties=species:S:1:pos:R:3 pbc="F F F"
C        0.61000000       0.00000000       1.00000000
C       -0.59954000       0.00000000       1.00000000
H       -1.75012363       0.08539138       1.11916895
H        1.66751058       0.02553862       1.06393727
4
Properties=species:S:1:pos:R:3 pbc="F F F"
C        0.61000000       0.00000000       1.00000000
C       -0.59954000       0.00000000       1.00000000
H       -1.60833593       0.17246958       1.09959293
H        1.66751058       0.02553862       1.06393727
4
Properties=species:S:1:pos:R:3 pbc="F F F"
C        0.61000000       0.00000000       1.00000000
C       -0.59954000       0.00000000       1.00000000
H       -1.60116368       0.16233581       1.13997190
H        1.66751058       0.02553862       1.06393727
4
Properties=species:S:1:pos:R:3 pbc="F F F"
C        0.61000000       0.00000000       1.00000000
C       -0.59954000       0.00000000       1.00000000
H       -1.61385395       0.18209627       1.11947858
H        1.66751058       0.02553862       1.06393727
4
Properties=species:S:1:pos:R:3 pbc="F F F"
C        0.61000000       0.00000000       1.00000000
C       -0.59954000       0.00000000       1.00000000
H       -1.58832032       0.22797124       1.12534251
H        1.66751058       0.02553862       1.06393727
4
Properties=species:S:1:pos:R:3 pbc="F F F"
C        0.61000000       0.00000000       1.00000000
C       -0.59954000       0.00000000       1.00000000
H       -1.59205269       0.22679536       1.12600667
H        1.66751058       0.02553862       1.06393727
4
Properties=species:S:1:pos:R:3 pbc="F F F"
C        0.61000000       0.00000000       1.00000000
C       -0.59954000       0.00000000       1.00000000
H       -1.59205269       0.22679536       1.12600667
H        1.72344832       0.01160537       1.13539678
4
Properties=species:S:1:pos:R:3 pbc="F F F"
C        0.61000000       0.00000000       1.00000000
C       -0.59954000       0.00000000       1.00000000
H       -1.59339074       0.22012824       1.12100864
H        1.66751058       0.02553862       1.06393727
4
Properties=species:S:1:pos:R:3 pbc="F F F"
C        0.61000000       0.00000000       1.00000000
C       -0.59954000       0.00000000       1.00000000
H       -1.64949649       0.22413217       1.17595927
H        1.66751058       0.02553862       1.06393727
4
Properties=species:S:1:pos:R:3 pbc="F F F"
C        0.61000000       0.00000000       1.00000000
C       -0.59954000       0.00000000       1.00000000
H       -1.64949649       0.22413217       1.17595927
H        1.66516171       0.01995898       1.06529965
4
Properties=species:S:1:pos:R:3 pbc="F F F"
C        0.61000000       0.00000000       1.00000000
C       -0.59954000       0.00000000       1.00000000
H       -1.71191614       0.20289507       1.18539288
H        1.66516171       0.01995898       1.06529965
4
Properties=species:S:1:pos:R:3 pbc="F F F"
C        0.61000000       0.00000000       1.00000000
C       -0.59954000       0.00000000       1.00000000
H       -1.64949649       0.22413217       1.17595927
H        1.69040820       0.09996105       1.07119387
4
Properties=species:S:1:pos:R:3 pbc="F F F"
C        0.61000000       0.00000000       1.00000000
C       -0.59954000       0.00000000       1.00000000
H       -1.63042270       0.21576722       1.17075339
H        1.66516171       0.01995898       1.06529965
4
Properties=species:S:1:pos:R:3 pbc="F F F"
C        0.61000000       0.00000000       1.00000000
C       -0.59954000       0.00000000       1.00000000
H       -1.63042270       0.21576722       1.17075339
H        1.63447188       0.00409713       1.00927149
4
Properties=species:S:1:pos:R:3 pbc="F F F"
C        0.61000000       0.00000000       1.00000000
C       -0.59954000       0.00000000       1.00000000
H       -1.63042270       0.21576722       1.17075339
H        1.65661492       0.00692897       0.96792468
4
Properties=species:S:1:pos:R:3 pbc="F F F"
C        0.61000000       0.00000000       1.00000000
C       -0.59954000       0.00000000       1.00000000
H       -1.63042270       0.21576722       1.17075339
H        1.66168425       0.01323336       0.96268279
4
Properties=species:S:1:pos:R:3 pbc="F F F"
C        0.61000000       0.00000000       1.00000000
C       -0.59954000       0.00000000       1.00000000
H       -1.67441185       0.21124986       1.17197505
H        1.66168425       0.01323336       0.96268279
4
Properties=species:S:1:pos:R:3 pbc="F F F"
C        0.61000000       0.00000000       1.00000000
C       -0.59954000       0.00000000       1.00000000
H       -1.63042270       0.21576722       1.17075339
H        1.67559114       0.03968538       0.93919180
4
Properties=species:S:1:pos:R:3 pbc="F F F"
C        0.61000000       0.00000000       1.00000000
C       -0.59954000       0.00000000       1.00000000
H       -1.63042270       0.21576722       1.17075339
H        1.71737304       0.03909575       0.91426856
4
Properties=species:S:1:pos:R:3 pbc="F F F"
C        0.61000000       0.00000000       1.00000000
C       -0.59954000       0.00000000       1.00000000
H       -1.63546371       0.21826781       1.23692583
H        1.67559114       0.03968538       0.93919180
4
Properties=species:S:1:pos:R:3 pbc="F F F"
C        0.61000000       0.00000000       1.00000000
C       -0.59954000       0.00000000       1.00000000
H       -1.63546371       0.21826781       1.23692583
H        1.68846283       0.09926481       0.93839275
4
Properties=species:S:1:pos:R:3 pbc="F F F"
C        0.61000000       0.00000000       1.00000000
C       -0.59954000       0.00000000       1.00000000
H       -1.63546371       0.21826781       1.23692583
H        1.66314016       0.08469378       0.86738065
4
Properties=species:S:1:pos:R:3 pbc="F F F"
C        0.61000000       0.00000000       1.00000000
C       -0.59954000       0.00000000       1.00000000
H       -1.63546371       0.21826781       1.23692583
H        1.64012976       0.09809718       0.82446963
4
Properties=species:S:1:pos:R:3 pbc="F F F"
C        0.61000000       0.00000000       1.00000000
C       -0.59954000       0.00000000       1.00000000
H       -1.63713981       0.22109841       1.23954364
H        1.66314016       0.08469378       0.86738065
4
Properties=species:S:1:pos:R:3 pbc="F F F"
C        0.61000000       0.00000000       1.00000000
C       -0.59954000       0.00000000       1.00000000
H       -1.63713981       0.22109841       1.23954364
H        1.59382404       0.06695867       0.80968428
4
Properties=species:S:1:pos:R:3 pbc="F F F"
C        0.61000000       0.00000000       1.00000000
C       -0.59954000       0.00000000       1.00000000
H       -1.60341262       0.14265179       1.23991749
H        1.66314016       0.08469378       0.86738065
4
Properties=species:S:1:pos:R:3 pbc="F F F"
C        0.61000000       0.00000000       1.00000000
C       -0.59954000       0.00000000       1.00000000
H       -1.60341262       0.14265179       1.23991749
H        1.64407833       0.10937897       0.84462586
4
Properties=species:S:1:pos:R:3 pbc="F F F"
C        0.61000000       0.00000000       1.00000000
C       -0.59954000       0.00000000       1.00000000
H       -1.53154126       0.11812689       1.19351691
H        1.64407833       0.10937897       0.84462586
4
Properties=species:S:1:pos:R:3 pbc="F F F"
C        0.61000000       0.00000000       1.00000000
C       -0.59954000       0.00000000       1.00000000
H       -1.60769721       0.15238996       1.23815350
H        1.64407833       0.10937897       0.84462586
4
Properties=species:S:1:pos:R:3 pbc="F F F"
C        0.61000000       0.00000000       1.00000000
C       -0.59954000       0.00000000       1.00000000
H       -1.60769721       0.15238996       1.23815350
H        1.64307813       0.10906511       0.84421248
4
Properties=species:S:1:pos:R:3 pbc="F F F"
C        0.61000000       0.00000000       1.00000000
C       -0.59954000       0.00000000       1.00000000
H       -1.60769721       0.15238996       1.23815350
H        1.64004035       0.10504086       0.83562779
4
Properties=species:S:1:pos:R:3 pbc="F F F"
C        0.61000000       0.00000000       1.00000000
C       -0.59954000       0.00000000       1.00000000
H       -1.66521560       0.11420935       1.24513947
H        1.64004035       0.10504086       0.83562779
4
Properties=species:S:1:pos:R:3 pbc="F F F"
C        0.61000000       0.00000000       1.00000000
C       -0.59954000       0.00000000       1.00000000
H       -1.67494449       0.18220289       1.17369899
H        1.64004035       0.10504086       0.83562779
4
Properties=species:S:1:pos:R:3 pbc="F F F"
C        0.61000000       0.00000000       1.00000000
C       -0.59954000       0.00000000       1.00000000
H       -1.68723113       0.23728257       1.20017632
H        1.64004035       0.10504086       0.83562779
4
Properties=species:S:1:pos:R:3 pbc="F F F"
C        0.61000000       0.00000000       1.00000000
C       -0.59954000       0.00000000       1.00000000
H       -1.63441212       0.13185563       1.11292255
H        1.64004035       0.10504086       0.83562779
4
Properties=species:S:1:pos:R:3 pbc="F F F"
C        0.61000000       0.00000000       1.00000000
C       -0.59954000       0.00000000       1.00000000
H       -1.63441212       0.13185563       1.11292255
H        1.67220737       0.06833017       0.78551814
4
Properties=species:S:1:pos:R:3 pbc="F F F"
C        0.61000000       0.00000000       1.00000000
C       -0.59954000       0.00000000       1.00000000
H       -1.63441212       0.13185563       1.11292255
H        1.72619736       0.10087872       0.81057190
4
Properties=species:S:1:pos:R:3 pbc="F F F"
C        0.61000000       0.00000000       1.00000000
C       -0.59954000       0.00000000       1.00000000
H       -1.63441212       0.13185563       1.11292255
H        1.70964215       0.10432397       0.81368463
4
Properties=species:S:1:pos:R:3 pbc="F F F"
C        0.61000000       0.00000000       1.00000000
C       -0.59954000       0.00000000       1.00000000
H       -1.63401224       0.11933938       1.10970797
H        1.70964215       0.10432397       0.81368463
4
Properties=species:S:1:pos:R:3 pbc="F F F"
C        0.61000000       0.00000000       1.00000000
C       -0.59954000       0.00000000       1.00000000
H       -1.63401224       0.11933938       1.10970797
H        1.69520075       0.13184763       0.80186246
4
Properties=species:S:1:pos:R:3 pbc="F F F"
C        0.61000000       0.00000000       1.00000000
C       -0.59954000       0.00000000       1.00000000
H       -1.63401224       0.11933938       1.10970797
H        1.66550986       0.14142152       0.81224238
4
Properties=species:S:1:pos:R:3 pbc="F F F"
C        0.61000000       0.00000000       1.00000000
C       -0.59954000       0.00000000       1.00000000
H       -1.63401224       0.11933938       1.10970797
H        1.65765596       0.12804430       0.80690455
4
Properties=species:S:1:pos:R:3 pbc="F F F"
C        0.61000000       0.00000000       1.00000000
C       -0.59954000       0.00000000       1.00000000
H       -1.60767961       0.12455301       1.09653597
H        1.65765596       0.12804430       0.80690455
4
Properties=species:S:1:pos:R:3 pbc="F F F"
C        0.61000000       0.00000000       1.00000000
C       -0.59954000       0.00000000       1.00000000
H       -1.60767961       0.12455301       1.09653597
H        1.65578223       0.12343741       0.89717562
4
Properties=species:S:1:pos:R:3 pbc="F F F"
C        0.61000000       0.00000000       1.00000000
C       -0.59954000       0.00000000       1.00000000
H       -1.60767961       0.12455301       1.09653597
H        1.69962940       0.10571518       0.88531696
4
Properties=species:S:1:pos:R:3 pbc="F F F"
C        0.61000000       0.00000000       1.00000000
C       -0.59954000       0.00000000       1.00000000
H       -1.60767961       0.12455301       1.09653597
H        1.69960568       0.10571809       0.88531234
4
Properties=species:S:1:pos:R:3 pbc="F F F"
C        0.61000000       0.00000000       1.00000000
C       -0.59954000       0.00000000       1.00000000
H       -1.60531961       0.12805117       1.09326475
H        1.69960568       0.10571809       0.88531234
4
Properties=species:S:1:pos:R:3 pbc="F F F"
C        0.61000000       0.00000000       1.00000000
C       -0.59954000       0.00000000       1.00000000
H       -1.60531961       0.12805117       1.09326475
H        1.68709295       0.10704592       0.85719740
4
Properties=species:S:1:pos:R:3 pbc="F F F"
C        0.61000000       0.00000000       1.00000000
C       -0.59954000       0.00000000       1.00000000
H       -1.60531961       0.12805117       1.09326475
H        1.68537551       0.08163542       0.87702398
4
Properties=species:S:1:pos:R:3 pbc="F F F"
C        0.61000000       0.00000000       1.00000000
C       -0.59954000       0.00000000       1.00000000
H       -1.64592514       0.10416993       1.10051808
H        1.68537551       0.08163542       0.87702398
4
Properties=species:S:1:pos:R:3 pbc="F F F"
C        0.61000000       0.00000000       1.00000000
C       -0.59954000       0.00000000       1.00000000
H       -1.64017660       0.09566634       1.09896590
H        1.68537551       0.08163542       0.87702398
4
Properties=species:S:1:pos:R:3 pbc="F F F"
C        0.61000000       0.00000000       1.00000000
C       -0.59954000       0.00000000       1.00000000
H       -1.64017660       0.09566634       1.09896590
H        1.68797872       0.08287849       0.87146385
4
Properties=species:S:1:pos:R:3 pbc="F F F"
C        0.61000000       0.00000000       1.00000000
C       -0.59954000       0.00000000       1.00000000
H       -1.64017660       0.09566634       1.09896590
H        1.67783515       0.04652718       0.88168799
4
Properties=species:S:1:pos:R:3 pbc="F F F"
C        0.61000000       0.00000000       1.00000000
C       -0.59954000       0.00000000       1.00000000
H       -1.60063623       0.14732736       1.11422955
H        1.67783515       0.04652718       0.88168799
4
Properties=species:S:1:pos:R:3 pbc="F F F"
C        0.61000000       0.00000000       1.00000000
C       -0.59954000       0.00000000       1.00000000
H       -1.60063623       0.14732736       1.11422955
H        1.67875892       0.04646034       0.87807349
4
Properties=species:S:1:pos:R:3 pbc="F F F"
C        0.61000000       0.00000000       1.00000000
C       -0.59954000       0.00000000       1.00000000
H       -1.59036454       0.16993386       1.07689104
H        1.67875892       0.04646034       0.87807349
